data_image0
_cell_length_a       5.51543
_cell_length_b       5.51543
_cell_length_c       7.8
_cell_angle_alpha    90
_cell_angle_beta     90
_cell_angle_gamma    90

loop_
  _atom_site_label
  _atom_site_occupancy
  _atom_site_fract_x
  _atom_site_fract_y
  _atom_site_fract_z
  _atom_site_thermal_displace_type
  _atom_site_B_iso_or_equiv
  _atom_site_type_symbol
  La1      1.0000 0.00000  0.00000  0.00000  Biso   1.000  La
  La2      1.0000 0.50000  0.50000  0.00000  Biso   1.000  La
  La3      1.0000 0.00000  0.00000  0.50000  Biso   1.000  La
  La4      1.0000 0.50000  0.50000  0.50000  Biso   1.000  La
  Mn1      1.0000 0.50000  0.00000  0.25000  Biso   1.000  Mn
  Mn2      1.0000 0.00000  0.50000  0.25000  Biso   1.000  Mn
  Mn3      1.0000 0.50000  0.00000  0.75000  Biso   1.000  Mn
  Mn4      1.0000 0.00000  0.50000  0.75000  Biso   1.000  Mn
  O1       1.0000 0.50000  0.00000  0.00000  Biso   1.000  O
  O2       1.0000 0.00000  0.50000  0.00000  Biso   1.000  O
  O3       1.0000 0.50000  0.00000  0.50000  Biso   1.000  O
  O4       1.0000 0.00000  0.50000  0.50000  Biso   1.000  O
  O5       1.0000 0.26813  0.23187  0.25000  Biso   1.000  O
  O6       1.0000 0.73187  0.76813  0.25000  Biso   1.000  O
  O7       1.0000 0.26813  0.23187  0.75000  Biso   1.000  O
  O8       1.0000 0.73187  0.76813  0.75000  Biso   1.000  O
  O9       1.0000 0.23187  0.73187  0.25000  Biso   1.000  O
  O10      1.0000 0.76813  0.26813  0.25000  Biso   1.000  O
  O11      1.0000 0.23187  0.73187  0.75000  Biso   1.000  O
  O12      1.0000 0.76813  0.26813  0.75000  Biso   1.000  O
