data_image0
_cell_length_a       5.35987
_cell_length_b       9.28357
_cell_length_c       13.1289
_cell_angle_alpha    90
_cell_angle_beta     90
_cell_angle_gamma    90

loop_
  _atom_site_label
  _atom_site_occupancy
  _atom_site_fract_x
  _atom_site_fract_y
  _atom_site_fract_z
  _atom_site_thermal_displace_type
  _atom_site_B_iso_or_equiv
  _atom_site_type_symbol
  Nd1      1.0000 0.00000  0.00000  0.00000  Biso   1.000  Nd
  Nd2      1.0000 0.50000  0.16667  0.16667  Biso   1.000  Nd
  Nd3      1.0000 1.00000  0.33333  0.33333  Biso   1.000  Nd
  Nd4      1.0000 0.50000  0.50000  0.50000  Biso   1.000  Nd
  Nd5      1.0000 0.00000  0.66667  0.66667  Biso   1.000  Nd
  Nd6      1.0000 0.50000  0.83333  0.83333  Biso   1.000  Nd
  Nd7      1.0000 0.00000  0.66667  0.16667  Biso   1.000  Nd
  Nd8      1.0000 0.50000  0.83333  0.33333  Biso   1.000  Nd
  Nd9      1.0000 1.00000  0.00000  0.50000  Biso   1.000  Nd
  Nd10     1.0000 0.50000  0.16667  0.66667  Biso   1.000  Nd
  Nd11     1.0000 0.00000  0.33333  0.83333  Biso   1.000  Nd
  Nd12     1.0000 0.50000  0.50000  1.00000  Biso   1.000  Nd
  Ni1      1.0000 1.00000  0.00000  0.25000  Biso   1.000  Ni
  Ni2      1.0000 0.50000  0.16667  0.41667  Biso   1.000  Ni
  Ni3      1.0000 0.00000  0.33333  0.58333  Biso   1.000  Ni
  Ni4      1.0000 0.50000  0.50000  0.75000  Biso   1.000  Ni
  Ni5      1.0000 1.00000  0.66667  0.91667  Biso   1.000  Ni
  Ni6      1.0000 0.50000  0.83333  0.08333  Biso   1.000  Ni
  Ni7      1.0000 0.00000  0.66667  0.41667  Biso   1.000  Ni
  Ni8      1.0000 0.50000  0.83333  0.58333  Biso   1.000  Ni
  Ni9      1.0000 0.00000  0.00000  0.75000  Biso   1.000  Ni
  Ni10     1.0000 0.50000  0.16667  0.91667  Biso   1.000  Ni
  Ni11     1.0000 0.00000  0.33333  0.08333  Biso   1.000  Ni
  Ni12     1.0000 0.50000  0.50000  0.25000  Biso   1.000  Ni
  O1       1.0000 1.00000  0.17385  0.17385  Biso   1.000  O
  O2       1.0000 0.50000  0.32615  0.32615  Biso   1.000  O
  O3       1.0000 0.00000  0.50718  0.50718  Biso   1.000  O
  O4       1.0000 0.50000  0.65949  0.65949  Biso   1.000  O
  O5       1.0000 1.00000  0.84051  0.84051  Biso   1.000  O
  O6       1.0000 0.50000  0.99282  0.99282  Biso   1.000  O
  O7       1.0000 1.00000  0.82615  0.32615  Biso   1.000  O
  O8       1.0000 0.50000  0.00718  0.50718  Biso   1.000  O
  O9       1.0000 1.00000  0.15949  0.65949  Biso   1.000  O
  O10      1.0000 0.50000  0.34051  0.84051  Biso   1.000  O
  O11      1.0000 0.00000  0.49282  0.99282  Biso   1.000  O
  O12      1.0000 0.50000  0.67385  0.17385  Biso   1.000  O
  O13      1.0000 0.74192  0.92654  0.16577  Biso   1.000  O
  O14      1.0000 0.25808  0.07346  0.33423  Biso   1.000  O
  O15      1.0000 0.74192  0.25987  0.49910  Biso   1.000  O
  O16      1.0000 0.25808  0.40679  0.66756  Biso   1.000  O
  O17      1.0000 0.74192  0.59321  0.83244  Biso   1.000  O
  O18      1.0000 0.25808  0.74013  0.00090  Biso   1.000  O
  O19      1.0000 0.74192  0.57885  0.33962  Biso   1.000  O
  O20      1.0000 0.25808  0.75449  0.49372  Biso   1.000  O
  O21      1.0000 0.74192  0.91218  0.67295  Biso   1.000  O
  O22      1.0000 0.25808  0.08782  0.82705  Biso   1.000  O
  O23      1.0000 0.74192  0.24551  0.00628  Biso   1.000  O
  O24      1.0000 0.25808  0.42115  0.16038  Biso   1.000  O
  O25      1.0000 0.24192  0.92115  0.16038  Biso   1.000  O
  O26      1.0000 0.75808  0.07885  0.33962  Biso   1.000  O
  O27      1.0000 0.24192  0.25449  0.49372  Biso   1.000  O
  O28      1.0000 0.75808  0.41218  0.67295  Biso   1.000  O
  O29      1.0000 0.24192  0.58782  0.82705  Biso   1.000  O
  O30      1.0000 0.75808  0.74551  0.00628  Biso   1.000  O
  O31      1.0000 0.24192  0.57346  0.33423  Biso   1.000  O
  O32      1.0000 0.75808  0.75987  0.49910  Biso   1.000  O
  O33      1.0000 0.24192  0.90679  0.66756  Biso   1.000  O
  O34      1.0000 0.75808  0.09321  0.83244  Biso   1.000  O
  O35      1.0000 0.24192  0.24013  0.00090  Biso   1.000  O
  O36      1.0000 0.75808  0.42654  0.16577  Biso   1.000  O
